<?xml version="1.0" encoding="UTF-8"?>

<!-- generated on 2025-06-03 16:32:04 by Eclipse SUMO netedit Version 1.23.1
<neteditConfiguration xmlns:xsi="http://www.w3.org/2001/XMLSchema-instance" xsi:noNamespaceSchemaLocation="http://sumo.dlr.de/xsd/neteditConfiguration.xsd">

    <input>
        <sumocfg-file value="C:\Users\DELL\ev range prediction project agni\new data\measurable data\cleaned_data\cleaned final data\sumo\sumo_integration\config\simulation.sumocfg"/>
        <route-files value="C:\Users\DELL\ev range prediction project agni\new data\measurable data\cleaned_data\cleaned final data\sumo\sumo_integration\config\ev_route_new.rou.xml"/>
        <sumo-net-file value="C:\Users\DELL\ev range prediction project agni\new data\measurable data\cleaned_data\cleaned final data\sumo\sumo_integration\config\map_with_tls.net.xml"/>
    </input>

    <output>
        <output-file value="C:\Users\DELL\ev range prediction project agni\new data\measurable data\cleaned_data\cleaned final data\sumo\sumo_integration\config\map_with_tls.net.xml"/>
    </output>

    <processing>
        <geometry.min-radius.fix.railways value="false"/>
        <geometry.avoid-overlap value="false"/>
        <geometry.max-grade.fix value="false"/>
        <offset.disable-normalization value="true"/>
        <lefthand value="0"/>
    </processing>

    <junctions>
        <no-turnarounds value="true"/>
        <junctions.corner-detail value="5"/>
        <junctions.limit-turn-speed value="5.50"/>
        <rectangular-lane-cut value="0"/>
    </junctions>

    <pedestrian>
        <walkingareas value="0"/>
    </pedestrian>

    <netedit>
        <ignore.routeelements value="false"/>
    </netedit>

</neteditConfiguration>
-->

<net version="1.20" junctionCornerDetail="5" limitTurnSpeed="5.50" avoidOverlap="0" xmlns:xsi="http://www.w3.org/2001/XMLSchema-instance" xsi:noNamespaceSchemaLocation="http://sumo.dlr.de/xsd/net_file.xsd">

    <location netOffset="-184985.40,-1090910.58" convBoundary="14.48,5210.79,1292.29,5691.73" origBoundary="78.127306,9.856843,78.156154,9.917549" projParameter="+proj=utm +zone=44 +ellps=WGS84 +datum=WGS84 +units=m +no_defs"/>

    <type id="highway.primary" priority="12" numLanes="2" speed="27.78" disallow="tram rail_urban rail rail_electric rail_fast ship container cable_car subway aircraft wheelchair scooter drone" oneway="0"/>
    <type id="highway.residential" priority="3" numLanes="1" speed="13.89" disallow="tram rail_urban rail rail_electric rail_fast ship container cable_car subway aircraft wheelchair scooter drone" oneway="0"/>
    <type id="highway.tertiary" priority="10" numLanes="1" speed="22.22" disallow="tram rail_urban rail rail_electric rail_fast ship container cable_car subway aircraft wheelchair scooter drone" oneway="0"/>

    <edge id=":11124405706_0" function="internal">
        <lane id=":11124405706_0_0" index="0" disallow="tram rail_urban rail rail_electric rail_fast ship container cable_car subway aircraft wheelchair scooter drone" speed="13.89" length="14.40" shape="786.33,5667.36 771.95,5666.59"/>
    </edge>
    <edge id=":11124405706_1" function="internal">
        <lane id=":11124405706_1_0" index="0" disallow="tram rail_urban rail rail_electric rail_fast ship container cable_car subway aircraft wheelchair scooter drone" speed="8.00" length="4.07" shape="786.33,5667.36 782.51,5666.61 782.36,5666.51"/>
    </edge>
    <edge id=":11124405706_2" function="internal">
        <lane id=":11124405706_2_0" index="0" disallow="tram rail_urban rail rail_electric rail_fast ship container cable_car subway aircraft wheelchair scooter drone" speed="3.65" length="1.44" shape="786.33,5667.36 785.17,5666.50"/>
    </edge>
    <edge id=":11124405706_8" function="internal">
        <lane id=":11124405706_8_0" index="0" disallow="tram rail_urban rail rail_electric rail_fast ship container cable_car subway aircraft wheelchair scooter drone" speed="8.00" length="10.13" shape="782.36,5666.51 779.85,5664.81 778.35,5661.98 778.01,5658.10"/>
    </edge>
    <edge id=":11124405706_9" function="internal">
        <lane id=":11124405706_9_0" index="0" disallow="tram rail_urban rail rail_electric rail_fast ship container cable_car subway aircraft wheelchair scooter drone" speed="3.65" length="3.23" shape="785.17,5666.50 784.81,5665.68 785.26,5664.90 786.50,5664.17"/>
    </edge>
    <edge id=":11124405706_3" function="internal">
        <lane id=":11124405706_3_0" index="0" disallow="tram rail_urban rail rail_electric rail_fast ship container cable_car subway aircraft wheelchair scooter drone" speed="6.51" length="9.03" shape="781.21,5658.28 781.42,5660.74 782.38,5662.54 784.07,5663.69 786.50,5664.17"/>
    </edge>
    <edge id=":11124405706_4" function="internal">
        <lane id=":11124405706_4_0" index="0" disallow="tram rail_urban rail rail_electric rail_fast ship container cable_car subway aircraft wheelchair scooter drone" speed="8.00" length="14.19" shape="781.21,5658.28 780.45,5662.09 778.65,5664.75 775.82,5666.25 771.95,5666.59"/>
    </edge>
    <edge id=":11124405706_5" function="internal">
        <lane id=":11124405706_5_0" index="0" disallow="tram rail_urban rail rail_electric rail_fast ship container cable_car subway aircraft wheelchair scooter drone" speed="6.51" length="9.03" shape="772.12,5663.40 774.58,5663.18 776.39,5662.22 777.53,5660.53 778.01,5658.10"/>
    </edge>
    <edge id=":11124405706_6" function="internal">
        <lane id=":11124405706_6_0" index="0" disallow="tram rail_urban rail rail_electric rail_fast ship container cable_car subway aircraft wheelchair scooter drone" speed="13.89" length="14.40" shape="772.12,5663.40 786.50,5664.17"/>
    </edge>
    <edge id=":11124405706_7" function="internal">
        <lane id=":11124405706_7_0" index="0" disallow="tram rail_urban rail rail_electric rail_fast ship container cable_car subway aircraft wheelchair scooter drone" speed="3.65" length="1.44" shape="772.12,5663.40 773.27,5664.26"/>
    </edge>
    <edge id=":11124405706_10" function="internal">
        <lane id=":11124405706_10_0" index="0" disallow="tram rail_urban rail rail_electric rail_fast ship container cable_car subway aircraft wheelchair scooter drone" speed="3.65" length="3.23" shape="773.27,5664.26 773.63,5665.08 773.19,5665.86 771.95,5666.59"/>
    </edge>
    <edge id=":1960055871_0" function="internal">
        <lane id=":1960055871_0_0" index="0" disallow="tram rail_urban rail rail_electric rail_fast ship container cable_car subway aircraft wheelchair scooter drone" speed="6.51" length="8.99" shape="726.54,5260.12 724.09,5260.36 722.30,5261.32 721.16,5263.00 720.68,5265.42"/>
    </edge>
    <edge id=":1960055871_1" function="internal">
        <lane id=":1960055871_1_0" index="0" disallow="tram rail_urban rail rail_electric rail_fast ship container cable_car subway aircraft wheelchair scooter drone" speed="13.89" length="14.32" shape="726.54,5260.12 712.23,5259.35"/>
    </edge>
    <edge id=":1960055871_2" function="internal">
        <lane id=":1960055871_2_0" index="0" disallow="tram rail_urban rail rail_electric rail_fast ship container cable_car subway aircraft wheelchair scooter drone" speed="13.89" length="14.28" shape="712.43,5256.16 726.69,5256.93"/>
    </edge>
    <edge id=":1960055871_3" function="internal">
        <lane id=":1960055871_3_0" index="0" disallow="tram rail_urban rail rail_electric rail_fast ship container cable_car subway aircraft wheelchair scooter drone" speed="8.00" length="14.12" shape="712.43,5256.16 716.22,5256.94 718.85,5258.74 720.34,5261.57 720.68,5265.42"/>
    </edge>
    <edge id=":1960055871_4" function="internal">
        <lane id=":1960055871_4_0" index="0" disallow="tram rail_urban rail rail_electric rail_fast ship container cable_car subway aircraft wheelchair scooter drone" speed="3.65" length="1.44" shape="712.43,5256.16 713.58,5257.03"/>
    </edge>
    <edge id=":1960055871_8" function="internal">
        <lane id=":1960055871_8_0" index="0" disallow="tram rail_urban rail rail_electric rail_fast ship container cable_car subway aircraft wheelchair scooter drone" speed="3.65" length="3.23" shape="713.58,5257.03 713.93,5257.85 713.48,5258.63 712.23,5259.35"/>
    </edge>
    <edge id=":1960055871_5" function="internal">
        <lane id=":1960055871_5_0" index="0" disallow="tram rail_urban rail rail_electric rail_fast ship container cable_car subway aircraft wheelchair scooter drone" speed="6.51" length="8.99" shape="717.49,5265.25 717.27,5262.79 716.32,5261.00 714.65,5259.85 712.23,5259.35"/>
    </edge>
    <edge id=":1960055871_6" function="internal">
        <lane id=":1960055871_6_0" index="0" disallow="tram rail_urban rail rail_electric rail_fast ship container cable_car subway aircraft wheelchair scooter drone" speed="8.00" length="2.52" shape="717.49,5265.25 717.98,5262.78"/>
    </edge>
    <edge id=":1960055871_7" function="internal">
        <lane id=":1960055871_7_0" index="0" disallow="tram rail_urban rail rail_electric rail_fast ship container cable_car subway aircraft wheelchair scooter drone" speed="3.65" length="1.30" shape="717.49,5265.25 718.27,5264.20"/>
    </edge>
    <edge id=":1960055871_9" function="internal">
        <lane id=":1960055871_9_0" index="0" disallow="tram rail_urban rail rail_electric rail_fast ship container cable_car subway aircraft wheelchair scooter drone" speed="8.00" length="11.61" shape="717.98,5262.78 718.24,5261.45 720.02,5258.80 722.84,5257.29 726.69,5256.93"/>
    </edge>
    <edge id=":1960055871_10" function="internal">
        <lane id=":1960055871_10_0" index="0" disallow="tram rail_urban rail rail_electric rail_fast ship container cable_car subway aircraft wheelchair scooter drone" speed="3.65" length="3.37" shape="718.27,5264.20 718.35,5264.09 719.17,5263.73 719.95,5264.18 720.68,5265.42"/>
    </edge>
    <edge id=":1960055875_0" function="internal">
        <lane id=":1960055875_0_0" index="0" disallow="tram rail_urban rail rail_electric rail_fast ship container cable_car subway aircraft wheelchair scooter drone" speed="4.42" length="1.03" shape="1184.79,5303.02 1184.56,5302.84 1184.37,5302.73 1184.17,5302.68 1183.86,5302.66"/>
    </edge>
    <edge id=":1960055875_1" function="internal">
        <lane id=":1960055875_1_0" index="0" disallow="tram rail_urban rail rail_electric rail_fast ship container cable_car subway aircraft wheelchair scooter drone" speed="7.06" length="3.09" shape="1184.05,5299.46 1184.96,5299.54 1185.58,5299.69 1186.13,5300.00 1186.84,5300.57"/>
    </edge>
    <edge id=":1960055875_2" function="internal">
        <lane id=":1960055875_2_0" index="0" disallow="tram rail_urban rail rail_electric rail_fast ship container cable_car subway aircraft wheelchair scooter drone" speed="3.65" length="1.44" shape="1184.05,5299.46 1185.20,5300.33"/>
    </edge>
    <edge id=":1960055875_3" function="internal">
        <lane id=":1960055875_3_0" index="0" disallow="tram rail_urban rail rail_electric rail_fast ship container cable_car subway aircraft wheelchair scooter drone" speed="3.65" length="3.23" shape="1185.20,5300.33 1185.55,5301.15 1185.11,5301.93 1183.86,5302.66"/>
    </edge>
    <edge id=":1960055879_0" function="internal">
        <lane id=":1960055879_0_0" index="0" disallow="tram rail_urban rail rail_electric rail_fast ship container cable_car subway aircraft wheelchair scooter drone" speed="3.91" length="2.52" shape="176.27,5430.19 175.58,5430.25 175.08,5430.51 174.74,5430.98 174.59,5431.65"/>
    </edge>
    <edge id=":1960055879_1" function="internal">
        <lane id=":1960055879_1_0" index="0" disallow="tram rail_urban rail rail_electric rail_fast ship container cable_car subway aircraft wheelchair scooter drone" speed="3.65" length="4.67" shape="176.27,5430.19 175.11,5429.33 174.75,5428.51 175.19,5427.73 176.43,5426.99"/>
    </edge>
    <edge id=":1960055879_2" function="internal">
        <lane id=":1960055879_2_0" index="0" disallow="tram rail_urban rail rail_electric rail_fast ship container cable_car subway aircraft wheelchair scooter drone" speed="6.08" length="7.55" shape="171.40,5431.37 171.86,5429.37 172.86,5427.97 174.38,5427.18 176.43,5426.99"/>
    </edge>
    <edge id=":1960055879_3" function="internal">
        <lane id=":1960055879_3_0" index="0" disallow="tram rail_urban rail rail_electric rail_fast ship container cable_car subway aircraft wheelchair scooter drone" speed="3.65" length="4.67" shape="171.40,5431.37 172.30,5430.25 173.13,5429.92 173.90,5430.38 174.59,5431.65"/>
    </edge>
    <edge id=":1960055881_0" function="internal">
        <lane id=":1960055881_0_0" index="0" disallow="tram rail_urban rail rail_electric rail_fast ship container cable_car subway aircraft wheelchair scooter drone" speed="6.47" length="9.03" shape="715.84,5461.07 713.36,5461.27 711.56,5462.21 710.43,5463.90 709.97,5466.34"/>
    </edge>
    <edge id=":1960055881_1" function="internal">
        <lane id=":1960055881_1_0" index="0" disallow="tram rail_urban rail rail_electric rail_fast ship container cable_car subway aircraft wheelchair scooter drone" speed="18.05" length="14.48" shape="715.84,5461.07 701.39,5460.23"/>
        <lane id=":1960055881_1_1" index="1" disallow="tram rail_urban rail rail_electric rail_fast ship container cable_car subway aircraft wheelchair scooter drone" speed="18.05" length="14.48" shape="716.04,5457.87 701.56,5457.03"/>
    </edge>
    <edge id=":1960055881_3" function="internal">
        <lane id=":1960055881_3_0" index="0" disallow="tram rail_urban rail rail_electric rail_fast ship container cable_car subway aircraft wheelchair scooter drone" speed="8.72" length="16.95" shape="716.04,5457.87 712.19,5456.88 709.54,5454.46 708.07,5450.62 707.80,5445.35"/>
    </edge>
    <edge id=":1960055881_4" function="internal">
        <lane id=":1960055881_4_0" index="0" disallow="tram rail_urban rail rail_electric rail_fast ship container cable_car subway aircraft wheelchair scooter drone" speed="3.65" length="4.67" shape="716.04,5457.87 714.89,5457.00 714.54,5456.18 714.99,5455.40 716.24,5454.68"/>
    </edge>
    <edge id=":1960055881_5" function="internal">
        <lane id=":1960055881_5_0" index="0" disallow="tram rail_urban rail rail_electric rail_fast ship container cable_car subway aircraft wheelchair scooter drone" speed="6.58" length="9.19" shape="711.00,5445.52 711.22,5448.00 712.21,5449.82 713.94,5450.98 716.44,5451.49"/>
    </edge>
    <edge id=":1960055881_6" function="internal">
        <lane id=":1960055881_6_0" index="0" disallow="tram rail_urban rail rail_electric rail_fast ship container cable_car subway aircraft wheelchair scooter drone" speed="13.89" length="20.84" shape="711.00,5445.52 709.97,5466.34"/>
    </edge>
    <edge id=":1960055881_7" function="internal">
        <lane id=":1960055881_7_0" index="0" disallow="tram rail_urban rail rail_electric rail_fast ship container cable_car subway aircraft wheelchair scooter drone" speed="8.67" length="16.85" shape="711.00,5445.52 710.17,5450.73 708.32,5454.39 705.45,5456.49 701.56,5457.03"/>
    </edge>
    <edge id=":1960055881_8" function="internal">
        <lane id=":1960055881_8_0" index="0" disallow="tram rail_urban rail rail_electric rail_fast ship container cable_car subway aircraft wheelchair scooter drone" speed="3.65" length="4.67" shape="711.00,5445.52 710.13,5446.68 709.31,5447.03 708.54,5446.59 707.80,5445.35"/>
    </edge>
    <edge id=":1960055881_9" function="internal">
        <lane id=":1960055881_9_0" index="0" disallow="tram rail_urban rail rail_electric rail_fast ship container cable_car subway aircraft wheelchair scooter drone" speed="6.51" length="9.03" shape="701.91,5450.64 704.37,5450.42 706.18,5449.47 707.32,5447.78 707.80,5445.35"/>
    </edge>
    <edge id=":1960055881_10" function="internal">
        <lane id=":1960055881_10_0" index="0" disallow="tram rail_urban rail rail_electric rail_fast ship container cable_car subway aircraft wheelchair scooter drone" speed="18.05" length="14.54" shape="701.91,5450.64 716.44,5451.49"/>
        <lane id=":1960055881_10_1" index="1" disallow="tram rail_urban rail rail_electric rail_fast ship container cable_car subway aircraft wheelchair scooter drone" speed="18.05" length="14.54" shape="701.74,5453.84 716.24,5454.68"/>
    </edge>
    <edge id=":1960055881_12" function="internal">
        <lane id=":1960055881_12_0" index="0" disallow="tram rail_urban rail rail_electric rail_fast ship container cable_car subway aircraft wheelchair scooter drone" speed="8.71" length="16.92" shape="701.74,5453.84 705.54,5454.79 708.18,5457.20 709.66,5461.05 709.97,5466.34"/>
    </edge>
    <edge id=":1960055881_13" function="internal">
        <lane id=":1960055881_13_0" index="0" disallow="tram rail_urban rail rail_electric rail_fast ship container cable_car subway aircraft wheelchair scooter drone" speed="6.56" length="9.14" shape="706.77,5466.19 706.53,5463.70 705.55,5461.87 703.84,5460.71 701.39,5460.23"/>
    </edge>
    <edge id=":1960055881_14" function="internal">
        <lane id=":1960055881_14_0" index="0" disallow="tram rail_urban rail rail_electric rail_fast ship container cable_car subway aircraft wheelchair scooter drone" speed="13.89" length="20.87" shape="706.77,5466.19 707.80,5445.35"/>
    </edge>
    <edge id=":1960055881_15" function="internal">
        <lane id=":1960055881_15_0" index="0" disallow="tram rail_urban rail rail_electric rail_fast ship container cable_car subway aircraft wheelchair scooter drone" speed="8.64" length="16.95" shape="706.77,5466.19 707.57,5460.95 709.41,5457.28 712.30,5455.19 716.24,5454.68"/>
    </edge>
    <edge id=":1960055881_16" function="internal">
        <lane id=":1960055881_16_0" index="0" disallow="tram rail_urban rail rail_electric rail_fast ship container cable_car subway aircraft wheelchair scooter drone" speed="3.65" length="4.67" shape="706.77,5466.19 707.62,5465.03 708.44,5464.67 709.22,5465.10 709.97,5466.34"/>
    </edge>
    <edge id=":1960055882_0" function="internal">
        <lane id=":1960055882_0_0" index="0" disallow="tram rail_urban rail rail_electric rail_fast ship container cable_car subway aircraft wheelchair scooter drone" speed="6.07" length="8.74" shape="1293.62,5487.46 1293.44,5489.91 1292.50,5491.58 1290.81,5492.47 1288.35,5492.57"/>
    </edge>
    <edge id=":1960055882_1" function="internal">
        <lane id=":1960055882_1_0" index="0" disallow="tram rail_urban rail rail_electric rail_fast ship container cable_car subway aircraft wheelchair scooter drone" speed="3.90" length="2.91" shape="1288.67,5489.39 1289.49,5489.35 1290.06,5489.06 1290.37,5488.50 1290.43,5487.68"/>
    </edge>
    <edge id=":1960055882_2" function="internal">
        <lane id=":1960055882_2_0" index="0" disallow="tram rail_urban rail rail_electric rail_fast ship container cable_car subway aircraft wheelchair scooter drone" speed="3.65" length="4.67" shape="1288.67,5489.39 1289.79,5490.30 1290.11,5491.14 1289.63,5491.90 1288.35,5492.57"/>
    </edge>
    <edge id=":1960055884_0" function="internal">
        <lane id=":1960055884_0_0" index="0" disallow="tram rail_urban rail rail_electric rail_fast ship container cable_car subway aircraft wheelchair scooter drone" speed="13.89" length="14.40" shape="706.62,5663.08 692.24,5662.31"/>
    </edge>
    <edge id=":1960055884_1" function="internal">
        <lane id=":1960055884_1_0" index="0" disallow="tram rail_urban rail rail_electric rail_fast ship container cable_car subway aircraft wheelchair scooter drone" speed="8.03" length="14.20" shape="706.62,5663.08 702.82,5662.33 700.16,5660.53 698.64,5657.69 698.27,5653.81"/>
    </edge>
    <edge id=":1960055884_2" function="internal">
        <lane id=":1960055884_2_0" index="0" disallow="tram rail_urban rail rail_electric rail_fast ship container cable_car subway aircraft wheelchair scooter drone" speed="3.65" length="1.44" shape="706.62,5663.08 705.46,5662.22"/>
    </edge>
    <edge id=":1960055884_8" function="internal">
        <lane id=":1960055884_8_0" index="0" disallow="tram rail_urban rail rail_electric rail_fast ship container cable_car subway aircraft wheelchair scooter drone" speed="3.65" length="3.23" shape="705.46,5662.22 705.11,5661.40 705.55,5660.62 706.79,5659.89"/>
    </edge>
    <edge id=":1960055884_3" function="internal">
        <lane id=":1960055884_3_0" index="0" disallow="tram rail_urban rail rail_electric rail_fast ship container cable_car subway aircraft wheelchair scooter drone" speed="6.54" length="9.07" shape="701.47,5653.95 701.70,5656.44 702.67,5658.25 704.36,5659.40 706.79,5659.89"/>
    </edge>
    <edge id=":1960055884_4" function="internal">
        <lane id=":1960055884_4_0" index="0" disallow="tram rail_urban rail rail_electric rail_fast ship container cable_car subway aircraft wheelchair scooter drone" speed="7.99" length="2.52" shape="701.47,5653.95 701.00,5656.43"/>
    </edge>
    <edge id=":1960055884_5" function="internal">
        <lane id=":1960055884_5_0" index="0" disallow="tram rail_urban rail rail_electric rail_fast ship container cable_car subway aircraft wheelchair scooter drone" speed="3.65" length="1.30" shape="701.47,5653.95 700.69,5655.00"/>
    </edge>
    <edge id=":1960055884_9" function="internal">
        <lane id=":1960055884_9_0" index="0" disallow="tram rail_urban rail rail_electric rail_fast ship container cable_car subway aircraft wheelchair scooter drone" speed="7.99" length="11.70" shape="701.00,5656.43 700.74,5657.79 698.96,5660.46 696.12,5661.97 692.24,5662.31"/>
    </edge>
    <edge id=":1960055884_10" function="internal">
        <lane id=":1960055884_10_0" index="0" disallow="tram rail_urban rail rail_electric rail_fast ship container cable_car subway aircraft wheelchair scooter drone" speed="3.65" length="3.37" shape="700.69,5655.00 700.61,5655.12 699.79,5655.48 699.01,5655.04 698.27,5653.81"/>
    </edge>
    <edge id=":1960055884_6" function="internal">
        <lane id=":1960055884_6_0" index="0" disallow="tram rail_urban rail rail_electric rail_fast ship container cable_car subway aircraft wheelchair scooter drone" speed="6.49" length="9.03" shape="692.41,5659.11 694.88,5658.90 696.68,5657.94 697.81,5656.24 698.27,5653.81"/>
    </edge>
    <edge id=":1960055884_7" function="internal">
        <lane id=":1960055884_7_0" index="0" disallow="tram rail_urban rail rail_electric rail_fast ship container cable_car subway aircraft wheelchair scooter drone" speed="13.89" length="14.40" shape="692.41,5659.11 706.79,5659.89"/>
    </edge>
    <edge id=":1963202760_0" function="internal">
        <lane id=":1963202760_0_0" index="0" disallow="tram rail_urban rail rail_electric rail_fast ship container cable_car subway aircraft wheelchair scooter drone" speed="6.97" length="9.59" shape="326.80,5235.78 324.37,5236.01 322.47,5237.03 321.12,5238.84 320.31,5241.44"/>
    </edge>
    <edge id=":1963202760_1" function="internal">
        <lane id=":1963202760_1_0" index="0" disallow="tram rail_urban rail rail_electric rail_fast ship container cable_car subway aircraft wheelchair scooter drone" speed="13.89" length="14.40" shape="326.80,5235.78 312.45,5234.72"/>
    </edge>
    <edge id=":1963202760_2" function="internal">
        <lane id=":1963202760_2_0" index="0" disallow="tram rail_urban rail rail_electric rail_fast ship container cable_car subway aircraft wheelchair scooter drone" speed="3.65" length="1.30" shape="326.80,5235.78 325.77,5234.99"/>
    </edge>
    <edge id=":1963202760_8" function="internal">
        <lane id=":1963202760_8_0" index="0" disallow="tram rail_urban rail rail_electric rail_fast ship container cable_car subway aircraft wheelchair scooter drone" speed="3.65" length="3.38" shape="325.77,5234.99 325.66,5234.91 325.31,5234.08 325.75,5233.31 327.00,5232.58"/>
    </edge>
    <edge id=":1963202760_3" function="internal">
        <lane id=":1963202760_3_0" index="0" disallow="tram rail_urban rail rail_electric rail_fast ship container cable_car subway aircraft wheelchair scooter drone" speed="13.89" length="14.32" shape="312.72,5231.53 327.00,5232.58"/>
    </edge>
    <edge id=":1963202760_4" function="internal">
        <lane id=":1963202760_4_0" index="0" disallow="tram rail_urban rail rail_electric rail_fast ship container cable_car subway aircraft wheelchair scooter drone" speed="7.84" length="14.56" shape="312.72,5231.53 316.66,5232.44 319.23,5234.40 320.45,5237.40 320.31,5241.44"/>
    </edge>
    <edge id=":1963202760_5" function="internal">
        <lane id=":1963202760_5_0" index="0" disallow="tram rail_urban rail rail_electric rail_fast ship container cable_car subway aircraft wheelchair scooter drone" speed="6.31" length="9.04" shape="317.16,5240.87 317.25,5238.36 316.49,5236.50 314.89,5235.29 312.45,5234.72"/>
    </edge>
    <edge id=":1963202760_6" function="internal">
        <lane id=":1963202760_6_0" index="0" disallow="tram rail_urban rail rail_electric rail_fast ship container cable_car subway aircraft wheelchair scooter drone" speed="8.40" length="14.32" shape="317.16,5240.87 318.37,5237.06 320.41,5234.40 323.29,5232.91 327.00,5232.58"/>
    </edge>
    <edge id=":1963202760_7" function="internal">
        <lane id=":1963202760_7_0" index="0" disallow="tram rail_urban rail rail_electric rail_fast ship container cable_car subway aircraft wheelchair scooter drone" speed="3.65" length="1.44" shape="317.16,5240.87 318.16,5239.83"/>
    </edge>
    <edge id=":1963202760_9" function="internal">
        <lane id=":1963202760_9_0" index="0" disallow="tram rail_urban rail rail_electric rail_fast ship container cable_car subway aircraft wheelchair scooter drone" speed="3.65" length="3.23" shape="318.16,5239.83 319.02,5239.58 319.73,5240.12 320.31,5241.44"/>
    </edge>
    <edge id=":1963202763_0" function="internal">
        <lane id=":1963202763_0_0" index="0" disallow="tram rail_urban rail rail_electric rail_fast ship container cable_car subway aircraft wheelchair scooter drone" speed="6.46" length="9.03" shape="365.83,5238.19 363.36,5238.39 361.56,5239.33 360.44,5241.03 359.99,5243.47"/>
    </edge>
    <edge id=":1963202763_1" function="internal">
        <lane id=":1963202763_1_0" index="0" disallow="tram rail_urban rail rail_electric rail_fast ship container cable_car subway aircraft wheelchair scooter drone" speed="13.89" length="14.40" shape="365.83,5238.19 351.46,5237.30"/>
    </edge>
    <edge id=":1963202763_2" function="internal">
        <lane id=":1963202763_2_0" index="0" disallow="tram rail_urban rail rail_electric rail_fast ship container cable_car subway aircraft wheelchair scooter drone" speed="3.65" length="1.44" shape="365.83,5238.19 364.68,5237.31"/>
    </edge>
    <edge id=":1963202763_9" function="internal">
        <lane id=":1963202763_9_0" index="0" disallow="tram rail_urban rail rail_electric rail_fast ship container cable_car subway aircraft wheelchair scooter drone" speed="3.65" length="3.23" shape="364.68,5237.31 364.33,5236.49 364.78,5235.72 366.03,5234.99"/>
    </edge>
    <edge id=":1963202763_3" function="internal">
        <lane id=":1963202763_3_0" index="0" disallow="tram rail_urban rail rail_electric rail_fast ship container cable_car subway aircraft wheelchair scooter drone" speed="13.89" length="14.40" shape="351.66,5234.10 366.03,5234.99"/>
    </edge>
    <edge id=":1963202763_4" function="internal">
        <lane id=":1963202763_4_0" index="0" disallow="tram rail_urban rail rail_electric rail_fast ship container cable_car subway aircraft wheelchair scooter drone" speed="8.08" length="4.03" shape="351.66,5234.10 355.43,5234.89 355.57,5234.99"/>
    </edge>
    <edge id=":1963202763_5" function="internal">
        <lane id=":1963202763_5_0" index="0" disallow="tram rail_urban rail rail_electric rail_fast ship container cable_car subway aircraft wheelchair scooter drone" speed="3.65" length="1.44" shape="351.66,5234.10 352.80,5234.98"/>
    </edge>
    <edge id=":1963202763_10" function="internal">
        <lane id=":1963202763_10_0" index="0" disallow="tram rail_urban rail rail_electric rail_fast ship container cable_car subway aircraft wheelchair scooter drone" speed="8.08" length="10.20" shape="355.57,5234.99 358.08,5236.71 359.60,5239.57 359.99,5243.47"/>
    </edge>
    <edge id=":1963202763_11" function="internal">
        <lane id=":1963202763_11_0" index="0" disallow="tram rail_urban rail rail_electric rail_fast ship container cable_car subway aircraft wheelchair scooter drone" speed="3.65" length="3.23" shape="352.80,5234.98 353.15,5235.80 352.71,5236.57 351.46,5237.30"/>
    </edge>
    <edge id=":1963202763_6" function="internal">
        <lane id=":1963202763_6_0" index="0" disallow="tram rail_urban rail rail_electric rail_fast ship container cable_car subway aircraft wheelchair scooter drone" speed="6.60" length="9.15" shape="356.79,5243.35 356.54,5240.83 355.57,5238.98 353.87,5237.80 351.46,5237.30"/>
    </edge>
    <edge id=":1963202763_7" function="internal">
        <lane id=":1963202763_7_0" index="0" disallow="tram rail_urban rail rail_electric rail_fast ship container cable_car subway aircraft wheelchair scooter drone" speed="7.96" length="14.28" shape="356.79,5243.35 357.50,5239.49 359.27,5236.81 362.12,5235.31 366.03,5234.99"/>
    </edge>
    <edge id=":1963202763_8" function="internal">
        <lane id=":1963202763_8_0" index="0" disallow="tram rail_urban rail rail_electric rail_fast ship container cable_car subway aircraft wheelchair scooter drone" speed="3.65" length="4.67" shape="356.79,5243.35 357.64,5242.18 358.45,5241.81 359.24,5242.24 359.99,5243.47"/>
    </edge>
    <edge id=":1963202768_0" function="internal">
        <lane id=":1963202768_0_0" index="0" disallow="tram rail_urban rail rail_electric rail_fast ship container cable_car subway aircraft wheelchair scooter drone" speed="6.50" length="9.03" shape="549.20,5249.47 546.73,5249.68 544.93,5250.62 543.78,5252.30 543.29,5254.73"/>
    </edge>
    <edge id=":1963202768_1" function="internal">